Version 4
SHEET 1 2216 680
WIRE 592 -480 512 -480
WIRE 704 -480 592 -480
WIRE 736 -480 704 -480
WIRE 816 -480 800 -480
WIRE 832 -480 816 -480
WIRE 992 -480 832 -480
WIRE 1120 -480 992 -480
WIRE 512 -448 512 -480
WIRE 704 -448 704 -480
WIRE 832 -432 832 -480
WIRE 992 -400 992 -480
WIRE 1120 -400 1120 -480
WIRE 704 -352 704 -384
WIRE 432 -320 368 -320
WIRE 512 -320 512 -384
WIRE 512 -320 432 -320
WIRE 560 -320 512 -320
WIRE 592 -320 560 -320
WIRE 1392 -320 1296 -320
WIRE 1632 -320 1456 -320
WIRE 1680 -320 1632 -320
WIRE 1792 -320 1760 -320
WIRE 1888 -320 1856 -320
WIRE 2016 -320 1888 -320
WIRE 2176 -320 2016 -320
WIRE 992 -304 992 -320
WIRE 1120 -304 1120 -336
WIRE 1120 -304 992 -304
WIRE 560 -288 560 -320
WIRE 992 -288 992 -304
WIRE 1632 -288 1632 -320
WIRE 2016 -288 2016 -320
WIRE 1888 -272 1888 -320
WIRE 2176 -272 2176 -320
WIRE 592 -240 592 -320
WIRE 608 -240 592 -240
WIRE 704 -240 704 -272
WIRE 704 -240 672 -240
WIRE 736 -240 704 -240
WIRE 768 -240 736 -240
WIRE 832 -240 832 -368
WIRE 832 -240 768 -240
WIRE 368 -208 368 -320
WIRE 560 -208 560 -224
WIRE 736 -208 736 -240
WIRE 2016 -192 2016 -208
WIRE 2176 -192 2176 -208
WIRE 2176 -192 2016 -192
WIRE 2016 -176 2016 -192
WIRE 1072 -144 1008 -144
WIRE 1296 -144 1296 -320
WIRE 1296 -144 1136 -144
WIRE 1344 -144 1296 -144
WIRE 1392 -144 1344 -144
WIRE 1520 -144 1472 -144
WIRE 1600 -144 1584 -144
WIRE 1632 -144 1632 -224
WIRE 1632 -144 1600 -144
WIRE 1888 -144 1888 -208
WIRE 1888 -144 1632 -144
WIRE 96 -112 32 -112
WIRE 208 -112 176 -112
WIRE 368 -112 368 -144
WIRE 368 -112 288 -112
WIRE 416 -112 368 -112
WIRE 448 -112 416 -112
WIRE 560 -112 560 -128
WIRE 560 -112 512 -112
WIRE 672 -112 560 -112
WIRE 736 -112 736 -144
WIRE 736 -112 672 -112
WIRE 736 -96 736 -112
WIRE 1344 -64 1344 -144
WIRE 1600 -64 1600 -144
WIRE 1600 -64 1568 -64
WIRE 416 -48 416 -112
WIRE 432 -48 416 -48
WIRE 672 -48 432 -48
WIRE 1568 -32 1568 -64
WIRE 32 -16 32 -112
WIRE 256 -16 32 -16
WIRE 272 -16 256 -16
WIRE 736 0 736 -32
WIRE 560 16 560 0
WIRE 560 16 496 16
WIRE 256 32 256 -16
WIRE 560 32 560 16
WIRE 496 48 496 16
WIRE 672 64 672 -48
WIRE 912 64 672 64
WIRE 1008 64 1008 -144
WIRE 1008 64 976 64
WIRE 1040 64 1008 64
WIRE 1120 64 1040 64
WIRE 1232 64 1200 64
WIRE 1344 64 1344 0
WIRE 1344 64 1296 64
WIRE 1360 64 1344 64
WIRE 1568 64 1568 32
WIRE 1568 64 1360 64
WIRE -48 80 -192 80
WIRE 32 80 32 -16
WIRE 32 80 -48 80
WIRE 1040 96 1040 64
WIRE 432 112 432 -48
WIRE 432 112 384 112
WIRE 1360 144 1360 64
WIRE -192 176 -192 80
WIRE 496 176 496 112
WIRE 496 176 384 176
WIRE 560 176 560 112
WIRE 560 176 496 176
WIRE 1040 192 1040 160
WIRE 560 208 560 176
WIRE 1360 224 1360 208
WIRE 416 240 384 240
WIRE 416 336 416 240
WIRE 416 336 352 336
WIRE 560 352 560 288
WIRE 560 352 464 352
WIRE 352 368 352 336
WIRE 352 464 352 448
WIRE -192 576 -192 256
WIRE 256 576 256 320
WIRE 256 576 -192 576
WIRE 352 576 352 528
WIRE 352 576 256 576
WIRE 432 576 352 576
WIRE 464 576 464 352
WIRE 464 576 432 576
WIRE 432 608 432 576
FLAG 432 608 0
FLAG 736 0 0
FLAG 816 -480 Vp
FLAG 560 0 Vp
FLAG 1040 192 0
FLAG 1360 224 0
FLAG 1888 -320 Vn
FLAG 992 -288 0
FLAG 2016 -176 0
FLAG 432 -320 Vp1_c
FLAG 592 -480 Vp2_c
FLAG 672 -112 Vp1
FLAG 768 -240 Vp2
FLAG -48 80 VIN
SYMBOL voltage -192 160 R0
WINDOW 123 0 0 Left 0
WINDOW 39 0 0 Left 0
SYMATTR InstName V1
SYMATTR Value 9
SYMBOL ind 304 -128 R90
WINDOW 0 5 56 VBottom 2
WINDOW 3 32 56 VTop 2
SYMATTR InstName L1
SYMATTR Value 68µ
SYMBOL res 336 352 R0
SYMATTR InstName R2
SYMATTR Value 1k
SYMBOL cap 336 464 R0
SYMATTR InstName C2
SYMATTR Value 1µ
SYMBOL diode 448 -96 R270
WINDOW 0 32 32 VTop 2
WINDOW 3 0 32 VBottom 2
SYMATTR InstName D1
SYMBOL cap 720 -96 R0
SYMATTR InstName C3
SYMATTR Value 0.22µ
SYMBOL cap 720 -208 R0
SYMATTR InstName C4
SYMATTR Value 0.22µ
SYMBOL cap 352 -208 R0
SYMATTR InstName C5
SYMATTR Value 0.22µ
SYMBOL res 544 -224 R0
SYMATTR InstName R3
SYMATTR Value 10
SYMBOL diode 576 -224 R180
WINDOW 0 24 64 Left 2
WINDOW 3 24 0 Left 2
SYMATTR InstName D2
SYMBOL diode 608 -224 R270
WINDOW 0 32 32 VTop 2
WINDOW 3 0 32 VBottom 2
SYMATTR InstName D3
SYMBOL cap 816 -432 R0
SYMATTR InstName C6
SYMATTR Value 0.22µ
SYMBOL diode 736 -464 R270
WINDOW 0 32 32 VTop 2
WINDOW 3 0 32 VBottom 2
SYMATTR InstName D4
SYMBOL res 688 -368 R0
SYMATTR InstName R4
SYMATTR Value 10
SYMBOL diode 720 -384 R180
WINDOW 0 24 64 Left 2
WINDOW 3 24 0 Left 2
SYMATTR InstName D5
SYMBOL res 544 16 R0
SYMATTR InstName R5
SYMATTR Value 1Meg
SYMBOL res 544 192 R0
SYMATTR InstName R6
SYMATTR Value 6.25k
SYMBOL cap 976 48 R90
WINDOW 0 0 32 VBottom 2
WINDOW 3 32 32 VTop 2
SYMATTR InstName C8
SYMATTR Value 0.22µ
SYMBOL diode 1024 96 R0
SYMATTR InstName D6
SYMBOL res 1216 48 R90
WINDOW 0 0 56 VBottom 2
WINDOW 3 32 56 VTop 2
SYMATTR InstName R7
SYMATTR Value 20
SYMBOL diode 1296 48 R90
WINDOW 0 0 32 VBottom 2
WINDOW 3 32 32 VTop 2
SYMATTR InstName D7
SYMBOL diode 1328 -64 R0
SYMATTR InstName D8
SYMBOL res 1488 -160 R90
WINDOW 0 0 56 VBottom 2
WINDOW 3 32 56 VTop 2
SYMATTR InstName R8
SYMATTR Value 20
SYMBOL diode 1584 -160 R90
WINDOW 0 0 32 VBottom 2
WINDOW 3 32 32 VTop 2
SYMATTR InstName D9
SYMBOL cap 1136 -160 R90
WINDOW 0 0 32 VBottom 2
WINDOW 3 32 32 VTop 2
SYMATTR InstName C9
SYMATTR Value 0.22µ
SYMBOL cap 1376 208 R180
WINDOW 0 24 56 Left 2
WINDOW 3 24 8 Left 2
SYMATTR InstName C10
SYMATTR Value 0.22µ
SYMBOL cap 1584 32 R180
WINDOW 0 24 56 Left 2
WINDOW 3 24 8 Left 2
SYMATTR InstName C11
SYMATTR Value 0.22µ
SYMBOL cap 1904 -208 R180
WINDOW 0 24 56 Left 2
WINDOW 3 24 8 Left 2
SYMATTR InstName C12
SYMATTR Value 0.22µ
SYMBOL cap 1456 -336 R90
WINDOW 0 0 32 VBottom 2
WINDOW 3 32 32 VTop 2
SYMATTR InstName C13
SYMATTR Value 0.22µ
SYMBOL diode 1616 -288 R0
SYMATTR InstName D10
SYMBOL cap 496 -448 R0
SYMATTR InstName C14
SYMATTR Value 0.22µ
SYMBOL res 1776 -336 R90
WINDOW 0 0 56 VBottom 2
WINDOW 3 32 56 VTop 2
SYMATTR InstName R9
SYMATTR Value 20
SYMBOL diode 1856 -336 R90
WINDOW 0 0 32 VBottom 2
WINDOW 3 32 32 VTop 2
SYMATTR InstName D11
SYMBOL res 976 -416 R0
SYMATTR InstName R10
SYMATTR Value 100k
SYMBOL res 2000 -304 R0
SYMATTR InstName R11
SYMATTR Value 100k
SYMBOL PowerProducts\\LT1171HV 256 176 R0
SYMATTR InstName U2
SYMBOL res 192 -128 R90
WINDOW 0 0 56 VBottom 2
WINDOW 3 32 56 VTop 2
SYMATTR InstName R1
SYMATTR Value 0.34
SYMBOL cap 1104 -400 R0
SYMATTR InstName C1
SYMATTR Value 2µ
SYMBOL cap 2160 -272 R0
SYMATTR InstName C7
SYMATTR Value 2µ
TEXT 568 552 Left 2 !.ic V(Vp)=200 V(Vn)=-200
TEXT -224 632 Left 2 !.tran 0 15m 10m
TEXT 760 408 Left 2 !.meas Pin AVG V(VIN)*I(V1)
TEXT 760 448 Left 2 !.meas Pout AVG V(Vp)*I(R10)+V(Vn)*I(R11)
